Circuit: * D:\Proiecte\Electronica\Pintry\Simulations\SIA483DJ_test\SIA483DJ_test.asc

Instance "m:m2:2": Length shorter than recommended for a level 3 MOSFET.
Instance "m:m2:1": Length shorter than recommended for a level 3 MOSFET.
Direct Newton iteration for .op point succeeded.

Date: Sun Jun 27 13:58:24 2021
Total elapsed time: 0.063 seconds.

tnom = 27
temp = 27
method = modified trap
totiter = 2583
traniter = 2572
tranpoints = 1225
accept = 1166
rejected = 59
matrix size = 19
fillins = 13
solver = Normal
Matrix Compiler1: 1.65 KB object code size  0.4/0.2/[0.1]
Matrix Compiler2: 1.82 KB object code size  0.2/0.2/[0.2]

